 xtb: 6.6.1 (8d0f1dd)
          07302620143D

 37 39  0     0  0            999 V2000
   -4.8514    1.4517    3.0863 C   0  0  0  0  0  0  0  0  0  0  0  0
   -3.9338    1.2261    1.9358 C   0  0  0  0  0  0  0  0  0  0  0  0
   -2.6871    0.8781    2.2082 N   0  0  0  0  0  0  0  0  0  0  0  0
   -1.8374    0.6550    1.2502 N   0  0  0  0  0  0  0  0  0  0  0  0
   -2.2386    0.7713   -0.0055 C   0  0  0  0  0  0  0  0  0  0  0  0
   -1.2761    0.4898   -1.0758 C   0  0  0  0  0  0  0  0  0  0  0  0
   -1.6330    0.5931   -2.4239 C   0  0  0  0  0  0  0  0  0  0  0  0
   -0.7614    0.3332   -3.3829 N   0  0  0  0  0  0  0  0  0  0  0  0
    0.4602   -0.0284   -3.0295 C   0  0  0  0  0  0  0  0  0  0  0  0
    0.8353   -0.1352   -1.6812 C   0  0  0  0  0  0  0  0  0  0  0  0
    2.1703   -0.5253   -1.2205 C   0  0  0  0  0  0  0  0  0  0  0  0
    2.4117   -0.5726    0.1283 C   0  0  0  0  0  0  0  0  0  0  0  0
    3.6601   -0.9316    0.6695 C   0  0  0  0  0  0  0  0  0  0  0  0
    4.6566   -1.2376   -0.2083 C   0  0  0  0  0  0  0  0  0  0  0  0
    5.9463   -1.6057    0.0958 O   0  0  0  0  0  0  0  0  0  0  0  0
    6.3862   -1.4508    1.3729 C   0  0  0  0  0  0  0  0  0  0  0  0
    5.8879   -2.4035    2.1914 F   0  0  0  0  0  0  0  0  0  0  0  0
    7.7108   -1.6130    1.3595 F   0  0  0  0  0  0  0  0  0  0  0  0
    4.4342   -1.1993   -1.5362 N   0  0  0  0  0  0  0  0  0  0  0  0
    3.2230   -0.8638   -2.1598 C   0  0  0  0  0  0  0  0  0  0  0  0
    3.1826   -0.8854   -3.3723 O   0  0  0  0  0  0  0  0  0  0  0  0
   -0.0513    0.1298   -0.7221 N   0  0  0  0  0  0  0  0  0  0  0  0
   -3.4742    1.1363   -0.3744 N   0  0  0  0  0  0  0  0  0  0  0  0
   -4.3397    1.3757    0.5897 C   0  0  0  0  0  0  0  0  0  0  0  0
   -5.7157    1.7965    0.2065 C   0  0  0  0  0  0  0  0  0  0  0  0
   -5.2107    2.4800    3.0875 H   0  0  0  0  0  0  0  0  0  0  0  0
   -5.7161    0.7933    3.0160 H   0  0  0  0  0  0  0  0  0  0  0  0
   -4.3200    1.2547    4.0129 H   0  0  0  0  0  0  0  0  0  0  0  0
   -2.6284    0.8868   -2.7224 H   0  0  0  0  0  0  0  0  0  0  0  0
    1.1534   -0.2368   -3.8299 H   0  0  0  0  0  0  0  0  0  0  0  0
    1.5969   -0.3230    0.7914 H   0  0  0  0  0  0  0  0  0  0  0  0
    3.7948   -0.9821    1.7352 H   0  0  0  0  0  0  0  0  0  0  0  0
    6.1480   -0.4659    1.8178 H   0  0  0  0  0  0  0  0  0  0  0  0
    5.1971   -1.4472   -2.1575 H   0  0  0  0  0  0  0  0  0  0  0  0
   -5.7863    1.8637   -0.8752 H   0  0  0  0  0  0  0  0  0  0  0  0
   -6.4440    1.0747    0.5738 H   0  0  0  0  0  0  0  0  0  0  0  0
   -5.9498    2.7637    0.6487 H   0  0  0  0  0  0  0  0  0  0  0  0
  1  2  1  0  0  0  0
  2  3  4  0  0  0  0
  3  4  4  0  0  0  0
  4  5  4  0  0  0  0
  5  6  1  0  0  0  0
  6  7  4  0  0  0  0
  7  8  4  0  0  0  0
  8  9  4  0  0  0  0
  9 10  4  0  0  0  0
 10 11  1  0  0  0  0
 11 12  2  0  0  0  0
 12 13  4  0  0  0  0
 13 14  4  0  0  0  0
 14 15  1  0  0  0  0
 15 16  1  0  0  0  0
 16 17  1  0  0  0  0
 16 18  1  0  0  0  0
 14 19  4  0  0  0  0
 11 20  1  0  0  0  0
 19 20  1  0  0  0  0
 20 21  2  0  0  0  0
  6 22  4  0  0  0  0
 10 22  4  0  0  0  0
  5 23  4  0  0  0  0
  2 24  4  0  0  0  0
 23 24  4  0  0  0  0
 24 25  1  0  0  0  0
  1 26  1  0  0  0  0
  1 27  1  0  0  0  0
  1 28  1  0  0  0  0
  7 29  1  0  0  0  0
  9 30  1  0  0  0  0
 12 31  1  0  0  0  0
 13 32  1  0  0  0  0
 16 33  1  0  0  0  0
 19 34  1  0  0  0  0
 25 35  1  0  0  0  0
 25 36  1  0  0  0  0
 25 37  1  0  0  0  0
M  END
