 xtb: 6.6.1 (8d0f1dd)
          07162618133D

 37 39  0     0  0            999 V2000
   -5.6320    2.0706    1.5060 C   0  0  0  0  0  0  0  0  0  0  0  0
   -4.4697    1.1639    1.2993 C   0  0  0  0  0  0  0  0  0  0  0  0
   -4.6222   -0.1073    1.6296 N   0  0  0  0  0  0  0  0  0  0  0  0
   -3.6506   -0.9545    1.4572 N   0  0  0  0  0  0  0  0  0  0  0  0
   -2.5071   -0.5299    0.9399 C   0  0  0  0  0  0  0  0  0  0  0  0
   -1.4513   -1.5250    0.7258 C   0  0  0  0  0  0  0  0  0  0  0  0
   -1.6545   -2.8789    1.0147 C   0  0  0  0  0  0  0  0  0  0  0  0
   -0.7018   -3.7701    0.8052 N   0  0  0  0  0  0  0  0  0  0  0  0
    0.4486   -3.3451    0.3103 C   0  0  0  0  0  0  0  0  0  0  0  0
    0.6688   -1.9912    0.0170 C   0  0  0  0  0  0  0  0  0  0  0  0
    1.9212   -1.4551   -0.5225 C   0  0  0  0  0  0  0  0  0  0  0  0
    2.0562   -0.0973   -0.6498 C   0  0  0  0  0  0  0  0  0  0  0  0
    3.2190    0.5129   -1.1569 C   0  0  0  0  0  0  0  0  0  0  0  0
    4.2405   -0.3068   -1.5325 C   0  0  0  0  0  0  0  0  0  0  0  0
    5.4582    0.0695   -2.0485 O   0  0  0  0  0  0  0  0  0  0  0  0
    5.8239    1.3762   -1.9759 C   0  0  0  0  0  0  0  0  0  0  0  0
    5.1800    2.1273   -2.8968 F   0  0  0  0  0  0  0  0  0  0  0  0
    7.1237    1.4433   -2.2696 F   0  0  0  0  0  0  0  0  0  0  0  0
    4.1216   -1.6435   -1.4192 N   0  0  0  0  0  0  0  0  0  0  0  0
    3.0022   -2.3336   -0.9298 C   0  0  0  0  0  0  0  0  0  0  0  0
    3.0502   -3.5450   -0.8977 O   0  0  0  0  0  0  0  0  0  0  0  0
   -0.2967   -1.0977    0.2358 N   0  0  0  0  0  0  0  0  0  0  0  0
   -2.2569    0.7397    0.6001 N   0  0  0  0  0  0  0  0  0  0  0  0
   -3.2315    1.6070    0.7783 C   0  0  0  0  0  0  0  0  0  0  0  0
   -2.9779    3.0291    0.4161 C   0  0  0  0  0  0  0  0  0  0  0  0
   -6.4618    1.5025    1.9162 H   0  0  0  0  0  0  0  0  0  0  0  0
   -5.9328    2.5200    0.5605 H   0  0  0  0  0  0  0  0  0  0  0  0
   -5.3686    2.8745    2.1921 H   0  0  0  0  0  0  0  0  0  0  0  0
   -2.5930   -3.2324    1.4145 H   0  0  0  0  0  0  0  0  0  0  0  0
    1.2085   -4.0930    0.1437 H   0  0  0  0  0  0  0  0  0  0  0  0
    1.2223    0.5179   -0.3475 H   0  0  0  0  0  0  0  0  0  0  0  0
    3.2708    1.5821   -1.2616 H   0  0  0  0  0  0  0  0  0  0  0  0
    5.6534    1.8401   -0.9858 H   0  0  0  0  0  0  0  0  0  0  0  0
    4.8979   -2.2216   -1.7235 H   0  0  0  0  0  0  0  0  0  0  0  0
   -3.1146    3.6690    1.2867 H   0  0  0  0  0  0  0  0  0  0  0  0
   -3.6811    3.3515   -0.3504 H   0  0  0  0  0  0  0  0  0  0  0  0
   -1.9628    3.1307    0.0441 H   0  0  0  0  0  0  0  0  0  0  0  0
  1  2  1  0  0  0  0
  2  3  4  0  0  0  0
  3  4  4  0  0  0  0
  4  5  4  0  0  0  0
  5  6  1  0  0  0  0
  6  7  4  0  0  0  0
  7  8  4  0  0  0  0
  8  9  4  0  0  0  0
  9 10  4  0  0  0  0
 10 11  1  0  0  0  0
 11 12  2  0  0  0  0
 12 13  4  0  0  0  0
 13 14  4  0  0  0  0
 14 15  1  0  0  0  0
 15 16  1  0  0  0  0
 16 17  1  0  0  0  0
 16 18  1  0  0  0  0
 14 19  4  0  0  0  0
 11 20  1  0  0  0  0
 19 20  1  0  0  0  0
 20 21  2  0  0  0  0
  6 22  4  0  0  0  0
 10 22  4  0  0  0  0
  5 23  4  0  0  0  0
  2 24  4  0  0  0  0
 23 24  4  0  0  0  0
 24 25  1  0  0  0  0
  1 26  1  0  0  0  0
  1 27  1  0  0  0  0
  1 28  1  0  0  0  0
  7 29  1  0  0  0  0
  9 30  1  0  0  0  0
 12 31  1  0  0  0  0
 13 32  1  0  0  0  0
 16 33  1  0  0  0  0
 19 34  1  0  0  0  0
 25 35  1  0  0  0  0
 25 36  1  0  0  0  0
 25 37  1  0  0  0  0
M  END
