 xtb: 6.6.1 (8d0f1dd)
          07112617363D

 37 39  0     0  0            999 V2000
   -4.5409   -3.7531    0.1401 C   0  0  0  0  0  0  0  0  0  0  0  0
   -3.7374   -2.5059    0.2642 C   0  0  0  0  0  0  0  0  0  0  0  0
   -2.4827   -2.5441   -0.1526 N   0  0  0  0  0  0  0  0  0  0  0  0
   -1.7272   -1.4890   -0.0760 N   0  0  0  0  0  0  0  0  0  0  0  0
   -2.2310   -0.3717    0.4227 C   0  0  0  0  0  0  0  0  0  0  0  0
   -1.3690    0.8130    0.4920 C   0  0  0  0  0  0  0  0  0  0  0  0
   -1.8438    2.0342    0.9802 C   0  0  0  0  0  0  0  0  0  0  0  0
   -1.0593    3.0961    1.0426 N   0  0  0  0  0  0  0  0  0  0  0  0
    0.1889    2.9707    0.6254 C   0  0  0  0  0  0  0  0  0  0  0  0
    0.6799    1.7537    0.1272 C   0  0  0  0  0  0  0  0  0  0  0  0
    2.0484    1.5465   -0.3532 C   0  0  0  0  0  0  0  0  0  0  0  0
    2.3984    0.3076   -0.8254 C   0  0  0  0  0  0  0  0  0  0  0  0
    3.6875    0.0076   -1.3034 C   0  0  0  0  0  0  0  0  0  0  0  0
    4.6107    1.0099   -1.2812 C   0  0  0  0  0  0  0  0  0  0  0  0
    5.9218    0.9403   -1.6903 O   0  0  0  0  0  0  0  0  0  0  0  0
    6.4640   -0.2793   -1.9481 C   0  0  0  0  0  0  0  0  0  0  0  0
    6.0303   -0.7799   -3.1263 F   0  0  0  0  0  0  0  0  0  0  0  0
    7.7825   -0.1103   -2.0667 F   0  0  0  0  0  0  0  0  0  0  0  0
    4.2814    2.2330   -0.8234 N   0  0  0  0  0  0  0  0  0  0  0  0
    3.0227    2.6214   -0.3403 C   0  0  0  0  0  0  0  0  0  0  0  0
    2.8851    3.7690    0.0291 O   0  0  0  0  0  0  0  0  0  0  0  0
   -0.1185    0.6880    0.0728 N   0  0  0  0  0  0  0  0  0  0  0  0
   -3.4859   -0.2430    0.8754 N   0  0  0  0  0  0  0  0  0  0  0  0
   -4.2583   -1.3080    0.8057 C   0  0  0  0  0  0  0  0  0  0  0  0
   -5.6561   -1.1933    1.3064 C   0  0  0  0  0  0  0  0  0  0  0  0
   -4.8637   -4.0936    1.1233 H   0  0  0  0  0  0  0  0  0  0  0  0
   -5.4301   -3.5733   -0.4624 H   0  0  0  0  0  0  0  0  0  0  0  0
   -3.9357   -4.5246   -0.3271 H   0  0  0  0  0  0  0  0  0  0  0  0
   -2.8622    2.1476    1.3210 H   0  0  0  0  0  0  0  0  0  0  0  0
    0.8103    3.8507    0.6875 H   0  0  0  0  0  0  0  0  0  0  0  0
    1.6395   -0.4604   -0.8247 H   0  0  0  0  0  0  0  0  0  0  0  0
    3.9085   -0.9712   -1.6902 H   0  0  0  0  0  0  0  0  0  0  0  0
    6.2665   -1.0380   -1.1669 H   0  0  0  0  0  0  0  0  0  0  0  0
    4.9924    2.9569   -0.8349 H   0  0  0  0  0  0  0  0  0  0  0  0
   -5.8381   -1.9308    2.0866 H   0  0  0  0  0  0  0  0  0  0  0  0
   -6.3598   -1.3811    0.4966 H   0  0  0  0  0  0  0  0  0  0  0  0
   -5.8188   -0.1952    1.7026 H   0  0  0  0  0  0  0  0  0  0  0  0
  1  2  1  0  0  0  0
  2  3  4  0  0  0  0
  3  4  4  0  0  0  0
  4  5  4  0  0  0  0
  5  6  1  0  0  0  0
  6  7  4  0  0  0  0
  7  8  4  0  0  0  0
  8  9  4  0  0  0  0
  9 10  4  0  0  0  0
 10 11  1  0  0  0  0
 11 12  2  0  0  0  0
 12 13  4  0  0  0  0
 13 14  4  0  0  0  0
 14 15  1  0  0  0  0
 15 16  1  0  0  0  0
 16 17  1  0  0  0  0
 16 18  1  0  0  0  0
 14 19  4  0  0  0  0
 11 20  1  0  0  0  0
 19 20  1  0  0  0  0
 20 21  2  0  0  0  0
  6 22  4  0  0  0  0
 10 22  4  0  0  0  0
  5 23  4  0  0  0  0
  2 24  4  0  0  0  0
 23 24  4  0  0  0  0
 24 25  1  0  0  0  0
  1 26  1  0  0  0  0
  1 27  1  0  0  0  0
  1 28  1  0  0  0  0
  7 29  1  0  0  0  0
  9 30  1  0  0  0  0
 12 31  1  0  0  0  0
 13 32  1  0  0  0  0
 16 33  1  0  0  0  0
 19 34  1  0  0  0  0
 25 35  1  0  0  0  0
 25 36  1  0  0  0  0
 25 37  1  0  0  0  0
M  END
